Circuit: * E:\Circuit design software\ltspice\Behavioral_Sources.asc

Direct Newton iteration for .op point succeeded.

Date: Tue Oct  6 18:12:54 2020
Total elapsed time: 0.053 seconds.

tnom = 27
temp = 27
method = modified trap
totiter = 2099
traniter = 2096
tranpoints = 1049
accept = 1049
rejected = 0
matrix size = 2
fillins = 0
solver = Normal
Matrix Compiler1: 36 bytes object code size  0.0/0.0/[0.0]
Matrix Compiler2: off  [0.0]/0.1/0.1

