Circuit: * E:\Circuit design software\ltspice\BJT_DC_sweep.asc


Date: Thu Oct  8 11:00:52 2020
Total elapsed time: 0.108 seconds.

tnom = 27
temp = 27
method = trap
totiter = 10010
traniter = 0
tranpoints = 0
accept = 0
rejected = 0
matrix size = 9
fillins = 0
solver = Normal
Matrix Compiler1: 456 bytes object code size  0.1/0.1/[0.1]
Matrix Compiler2: 667 bytes object code size  0.0/0.0/[0.0]

