Circuit: * E:\Circuit design software\ltspice\BJT_DC_transient.asc

Direct Newton iteration for .op point succeeded.

Date: Thu Oct  8 11:22:17 2020
Total elapsed time: 0.048 seconds.

tnom = 27
temp = 27
method = modified trap
totiter = 2091
traniter = 2088
tranpoints = 1045
accept = 1045
rejected = 0
matrix size = 8
fillins = 0
solver = Normal
Matrix Compiler1: 478 bytes object code size  0.1/0.0/[0.0]
Matrix Compiler2: off  [0.0]/0.1/0.0

