Circuit: *CMOS inverter VTC

Instance "mn": Length shorter than recommended for a level 1 MOSFET.
Instance "mp": Length shorter than recommended for a level 1 MOSFET.

Date: Sun Oct  4 08:32:34 2020
Total elapsed time: 0.225 seconds.

tnom = 27
temp = 27
method = trap
totiter = 10013
traniter = 0
tranpoints = 0
accept = 0
rejected = 0
matrix size = 5
fillins = 0
solver = Normal
Matrix Compiler1: 132 bytes object code size  0.0/0.0/[0.0]
Matrix Compiler2: off  [0.0]/0.1/0.1

