Circuit: * E:\Circuit design software\ltspice\common_emitter_ac_signal_analysis.asc

Warning: Multiple definitions of model "2n3904" Type: BJT
Direct Newton iteration for .op point succeeded.

Date: Thu Oct  8 19:52:36 2020
Total elapsed time: 0.248 seconds.

tnom = 27
temp = 27
method = modified trap
totiter = 2088
traniter = 2084
tranpoints = 1043
accept = 1043
rejected = 0
matrix size = 7
fillins = 0
solver = Normal
Matrix Compiler1: 268 bytes object code size  0.3/0.1/[0.0]
Matrix Compiler2: 469 bytes object code size  0.2/0.3/[0.1]

