Circuit: * E:\Circuit design software\ltspice\common_emitter_with_degeneration.asc

Direct Newton iteration for .op point succeeded.

Date: Thu Oct  8 19:32:15 2020
Total elapsed time: 0.055 seconds.

tnom = 27
temp = 27
method = modified trap
totiter = 2087
traniter = 2083
tranpoints = 1042
accept = 1042
rejected = 0
matrix size = 13
fillins = 0
solver = Normal
Matrix Compiler1:      39 opcodes  0.2/[0.0]/0.1
Matrix Compiler2: 993 bytes object code size  0.1/0.2/[0.1]

