Circuit: * E:\Circuit design software\ltspice\critically_damped.asc

Direct Newton iteration for .op point succeeded.

Date: Mon Oct  5 18:50:37 2020
Total elapsed time: 0.034 seconds.

tnom = 27
temp = 27
method = modified trap
totiter = 2085
traniter = 2082
tranpoints = 1042
accept = 1042
rejected = 0
matrix size = 2
fillins = 0
solver = Normal
Matrix Compiler1:       3 opcodes  0.0/[0.0]/0.0
Matrix Compiler2: 116 bytes object code size  0.0/0.0/[0.0]

