Circuit: * E:\Circuit design software\ltspice\diode_charactaristic.asc


Date: Sun Oct  4 18:46:01 2020
Total elapsed time: 0.090 seconds.

tnom = 27
temp = 27
method = trap
totiter = 2004
traniter = 0
tranpoints = 0
accept = 0
rejected = 0
matrix size = 3
fillins = 0
solver = Normal
Matrix Compiler1:       5 opcodes  0.0/[0.0]/0.1
Matrix Compiler2: 163 bytes object code size  0.0/0.1/[0.0]

