Circuit: * E:\Circuit design software\ltspice\Draft6.asc

Direct Newton iteration for .op point succeeded.

Date: Wed Oct  7 12:58:39 2020
Total elapsed time: 0.073 seconds.

tnom = 27
temp = 27
method = modified trap
totiter = 2099
traniter = 2096
tranpoints = 1049
accept = 1049
rejected = 0
matrix size = 10
fillins = 0
solver = Normal
Matrix Compiler1: 274 bytes object code size  0.1/0.0/[0.0]
Matrix Compiler2: 618 bytes object code size  0.1/0.2/[0.0]

