Circuit: * E:\Circuit design software\ltspice\Draft4.asc

WARNING: Less than two connections to node NC_01.  This node is used by R1.
WARNING: Less than two connections to node N002.  This node is used by R2.
Direct Newton iteration for .op point succeeded.

Date: Wed Oct  7 11:38:10 2020
Total elapsed time: 0.021 seconds.

tnom = 27
temp = 27
method = modified trap
totiter = 403
traniter = 400
tranpoints = 201
accept = 198
rejected = 3
matrix size = 5
fillins = 0
solver = Normal
Matrix Compiler1: off  [0.0]/0.0/0.0
Matrix Compiler2: 287 bytes object code size  0.0/0.1/[0.0]

