Circuit: * E:\Circuit design software\ltspice\Draft5.asc

Direct Newton iteration for .op point succeeded.

Date: Wed Oct  7 11:42:16 2020
Total elapsed time: 0.062 seconds.

tnom = 27
temp = 27
method = modified trap
totiter = 2091
traniter = 2088
tranpoints = 1045
accept = 1045
rejected = 0
matrix size = 4
fillins = 0
solver = Normal
Matrix Compiler1: 100 bytes object code size  0.1/0.0/[0.0]
Matrix Compiler2: 248 bytes object code size  0.1/0.1/[0.1]

