Circuit: * E:\Circuit design software\ltspice\overdamped_RLC.asc

Direct Newton iteration for .op point succeeded.

Date: Mon Oct  5 18:48:28 2020
Total elapsed time: 0.078 seconds.

tnom = 27
temp = 27
method = modified trap
totiter = 2085
traniter = 2082
tranpoints = 1042
accept = 1042
rejected = 0
matrix size = 2
fillins = 0
solver = Normal
Matrix Compiler1: 54 bytes object code size  0.0/0.1/[0.0]
Matrix Compiler2: 116 bytes object code size  0.1/0.1/[0.1]

