Circuit: * E:\Circuit design software\ltspice\RLC_with_source.asc

Direct Newton iteration for .op point succeeded.

Date: Mon Oct  5 18:05:21 2020
Total elapsed time: 0.080 seconds.

tnom = 27
temp = 27
method = modified trap
totiter = 2085
traniter = 2082
tranpoints = 1042
accept = 1042
rejected = 0
matrix size = 4
fillins = 0
solver = Normal
Matrix Compiler1: 100 bytes object code size  0.1/0.1/[0.0]
Matrix Compiler2: 248 bytes object code size  0.1/0.1/[0.0]

