Circuit: * E:\Circuit design software\ltspice\sadiku_chapter7_example_710_with_Source.asc

Direct Newton iteration for .op point succeeded.

Date: Wed Oct  7 07:43:52 2020
Total elapsed time: 0.023 seconds.

tnom = 27
temp = 27
method = modified trap
totiter = 2099
traniter = 2096
tranpoints = 1049
accept = 1049
rejected = 0
matrix size = 3
fillins = 0
solver = Normal
Matrix Compiler1: 50 bytes object code size  0.0/0.0/[0.0]
Matrix Compiler2: 175 bytes object code size  0.0/0.1/[0.0]

