Circuit: * E:\Circuit design software\ltspice\sadiku_chapter7_example_713_RL_with_two_switch.asc

Direct Newton iteration for .op point succeeded.

Date: Wed Oct  7 13:06:09 2020
Total elapsed time: 0.077 seconds.

tnom = 27
temp = 27
method = modified trap
totiter = 2099
traniter = 2096
tranpoints = 1049
accept = 1049
rejected = 0
matrix size = 10
fillins = 0
solver = Normal
Matrix Compiler1: 274 bytes object code size  0.2/0.1/[0.1]
Matrix Compiler2: 618 bytes object code size  0.1/0.2/[0.1]

