Circuit: * E:\Circuit design software\ltspice\sadiku_chapter7_example_7_withDependent_Source.asc

Direct Newton iteration for .op point succeeded.

Date: Tue Oct  6 10:07:04 2020
Total elapsed time: 0.023 seconds.

tnom = 27
temp = 27
method = modified trap
totiter = 2097
traniter = 2094
tranpoints = 1048
accept = 1048
rejected = 0
matrix size = 5
fillins = 1
solver = Normal
Matrix Compiler1: 204 bytes object code size  0.0/0.1/[0.0]
Matrix Compiler2:      28 opcodes  0.1/[0.0]/0.1

