Circuit: * E:\Circuit design software\ltspice\sadiku_chapter7_example_75.asc

Direct Newton iteration for .op point succeeded.

Date: Mon Oct  5 22:19:25 2020
Total elapsed time: 0.070 seconds.

tnom = 27
temp = 27
method = modified trap
totiter = 2095
traniter = 2092
tranpoints = 1047
accept = 1047
rejected = 0
matrix size = 2
fillins = 0
solver = Normal
Matrix Compiler1:       3 opcodes  0.0/[0.0]/0.0
Matrix Compiler2: 116 bytes object code size  0.1/0.0/[0.0]

