Circuit: * E:\Circuit design software\ltspice\sadiku_chapter7_example_711_RC_Step_Response.asc

Direct Newton iteration for .op point succeeded.

Date: Wed Oct  7 10:28:23 2020
Total elapsed time: 0.217 seconds.

tnom = 27
temp = 27
method = modified trap
totiter = 18043
traniter = 18040
tranpoints = 9021
accept = 9021
rejected = 0
matrix size = 3
fillins = 0
solver = Normal
Matrix Compiler1: 68 bytes object code size  0.0/0.0/[0.0]
Matrix Compiler2: off  [0.0]/0.1/0.1

