Circuit: * E:\Circuit design software\ltspice\sadiku_chapter7_example_72_without_Source.asc

Direct Newton iteration for .op point succeeded.

Date: Mon Oct  5 23:10:14 2020
Total elapsed time: 0.045 seconds.

tnom = 27
temp = 27
method = modified trap
totiter = 2091
traniter = 2088
tranpoints = 1045
accept = 1045
rejected = 0
matrix size = 2
fillins = 0
solver = Normal
Matrix Compiler1: 54 bytes object code size  0.0/0.0/[0.0]
Matrix Compiler2: 116 bytes object code size  0.0/0.0/[0.0]

