Circuit: * E:\Circuit design software\ltspice\sadiku_chapter7_example_72_withSource.asc

Direct Newton iteration for .op point succeeded.

Date: Mon Oct  5 22:38:38 2020
Total elapsed time: 0.062 seconds.

tnom = 27
temp = 27
method = modified trap
totiter = 2091
traniter = 2088
tranpoints = 1045
accept = 1045
rejected = 0
matrix size = 4
fillins = 0
solver = Normal
Matrix Compiler1: 100 bytes object code size  0.0/0.0/[0.0]
Matrix Compiler2: 248 bytes object code size  0.0/0.0/[0.0]

