Circuit: * E:\Circuit design software\ltspice\sadiku_chapter7_example_712_RL_Response.asc

Direct Newton iteration for .op point succeeded.

Date: Wed Oct  7 12:05:17 2020
Total elapsed time: 0.085 seconds.

tnom = 27
temp = 27
method = modified trap
totiter = 2091
traniter = 2088
tranpoints = 1045
accept = 1045
rejected = 0
matrix size = 4
fillins = 0
solver = Normal
Matrix Compiler1: off  [0.1]/0.1/0.2
Matrix Compiler2: 248 bytes object code size  0.1/0.2/[0.0]

