Circuit: *Half wave VTC


Date: Sat Oct  3 19:18:56 2020
Total elapsed time: 0.166 seconds.

tnom = 27
temp = 27
method = trap
totiter = 8010
traniter = 0
tranpoints = 0
accept = 0
rejected = 0
matrix size = 4
fillins = 0
solver = Normal
Matrix Compiler1:       7 opcodes  0.1/[0.1]/0.1
Matrix Compiler2: 242 bytes object code size  0.1/0.1/[0.1]

